Version 4.1
SHEET 1 880 680
WIRE 112 -32 -240 -32
WIRE 208 -32 112 -32
WIRE 336 -32 208 -32
WIRE 464 -32 416 -32
WIRE 528 -32 464 -32
WIRE 768 -32 608 -32
WIRE 112 48 112 -32
WIRE 208 48 208 -32
WIRE 464 96 464 -32
WIRE 544 96 464 96
WIRE -240 112 -240 -32
WIRE -128 112 -240 112
WIRE 768 112 768 -32
WIRE 768 112 608 112
WIRE 112 128 112 112
WIRE 112 128 -64 128
WIRE 208 128 208 112
WIRE 208 128 112 128
WIRE 336 128 208 128
WIRE 464 128 400 128
WIRE 544 128 464 128
WIRE -128 144 -416 144
WIRE 464 224 464 128
WIRE -416 320 -416 144
WIRE -720 336 -720 320
WIRE -608 336 -608 320
WIRE 464 352 464 304
WIRE -416 416 -416 400
WIRE -720 432 -720 416
WIRE -608 432 -608 416
FLAG -720 320 +V
FLAG -720 432 0
FLAG -608 320 -V
FLAG -608 432 0
FLAG 464 352 0
FLAG -416 416 0
FLAG -96 96 +v
FLAG 576 80 +v
FLAG -96 160 -V
FLAG 576 144 -V
SYMBOL voltage -720 320 R0
WINDOW 123 0 0 Left 0
WINDOW 39 0 0 Left 0
SYMATTR InstName V1
SYMATTR Value 3.3
SYMBOL voltage -608 320 R0
WINDOW 123 0 0 Left 0
WINDOW 39 0 0 Left 0
SYMATTR InstName V2
SYMATTR Value -3.3
SYMBOL cap 96 48 R0
SYMATTR InstName C1
SYMATTR Value 47p
SYMBOL diode 192 48 R0
SYMATTR InstName D1
SYMBOL diode 336 144 R270
WINDOW 0 32 32 VTop 2
WINDOW 3 0 32 VBottom 2
SYMATTR InstName D2
SYMBOL OpAmps\\ADA4807-4 576 48 R0
SYMATTR InstName U2
SYMBOL OpAmps\\ADA4807-4 -96 64 R0
SYMATTR InstName U1
SYMBOL res 432 -48 R90
WINDOW 0 0 56 VBottom 2
WINDOW 3 32 56 VTop 2
SYMATTR InstName R1
SYMATTR Value 1K
SYMBOL res 480 320 R180
WINDOW 0 36 76 Left 2
WINDOW 3 36 40 Left 2
SYMATTR InstName R2
SYMATTR Value 1K
SYMBOL res 512 -16 R270
WINDOW 0 32 56 VTop 2
WINDOW 3 0 56 VBottom 2
SYMATTR InstName R3
SYMATTR Value 1K
SYMBOL voltage -416 304 R0
WINDOW 123 24 146 Left 2
WINDOW 39 24 125 Left 2
SYMATTR InstName V3
SYMATTR Value SINE(0 0.5 1k)
TEXT -272 312 Left 2 !.tran 0 1 0 0.0001
